12
benzene
C         -0.26860       -0.46170       -1.43120
C          0.01310        0.05390       -0.16620
C         -0.24000       -0.71250        0.97150
C         -0.77470       -1.99440        0.84400
C         -1.05640       -2.51000       -0.42100
C         -0.80330       -1.74360       -1.55870
H         -1.02270       -2.14530       -2.54430
H         -0.07140        0.13540       -2.31760
H          0.42970        1.05270       -0.06690
H         -0.02060       -0.31080        1.95710
H         -0.97190       -2.59150        1.73040
H         -1.47300       -3.50870       -0.52030
