# hf/3-21g geom=connectivity
 OpenBabel06212209523D

  5  4  0  0  0  0  0  0  0  0999 V2000
   -2.4501   -1.3964   -0.0183 C   0  0  0  0  0  0  0  0  0  0  0  0
   -2.0935   -2.4052   -0.0183 H   0  0  0  0  0  0  0  0  0  0  0  0
   -2.0935   -0.8920    0.8554 H   0  0  0  0  0  0  0  0  0  0  0  0
   -2.0935   -0.8920   -0.8919 H   0  0  0  0  0  0  0  0  0  0  0  0
   -3.5201   -1.3964   -0.0183 H   0  0  0  0  0  0  0  0  0  0  0  0
  1  2  1  0  0  0  0
  1  5  1  0  0  0  0
  1  3  1  0  0  0  0
  4  1  1  0  0  0  0
M  END
$$$$
